     9
opted at M062X/6-311++G** level
C       0.00000000      1.12301043      0.16342880
O       0.00000000     -0.00000000      0.96520196
C      -0.00000000     -1.12301043      0.16342880
C      -0.00000000     -0.66332859     -1.25806546
C       0.00000000      0.66332859     -1.25806546
H      -0.00000000     -1.35972592     -2.08301610
H       0.00000000      1.35972592     -2.08301610
O      -0.00000000     -2.22418975      0.59875353
O       0.00000000      2.22418975      0.59875353
