87
Trimer of capped phenylalanine, taken from L7 noncovalent test set
C     -4.12753787   -8.27354662  -15.22488714
C     -4.99730445   -7.68279995  -16.15026253
C     -6.05640226   -8.45050368  -16.65326657
C     -6.26025484   -9.75969448  -16.21769306
C     -5.40084727  -10.32697779  -15.27588204
C     -4.32662886   -9.58289040  -14.78804554
C     -4.82061525   -6.24014328  -16.55815275
C     -5.69708620   -5.25893928  -15.71886648
C     -5.41471192   -3.81775598  -16.17967845
C     -7.93878945   -6.04158834  -14.99809985
C     -9.39726799   -6.17813364  -15.39415045
N     -4.47421969   -3.16008065  -15.46140558
N     -7.12076400   -5.49275606  -15.92539981
O     -7.53429582   -6.44135758  -13.89272676
O     -5.98962547   -3.35413363  -17.16942664
H     -9.63264047   -7.24338418  -15.48598320
H     -4.26760582   -2.20219682  -15.71641199
H    -10.02225447   -5.76665766  -14.59680911
H     -9.64052648   -5.67989869  -16.33696035
H     -7.50446992   -5.05924164  -16.76121836
H     -5.48275573   -5.38918772  -14.65655558
H     -5.07489365   -6.09908187  -17.61507699
H     -3.77671203   -5.93639829  -16.42616667
H     -6.72709037   -8.01285981  -17.38886856
H     -3.28831624   -7.69910768  -14.83895412
H     -7.08966330  -10.33858546  -16.61552695
H     -3.65065712  -10.01781829  -14.05744523
H     -5.56378077  -11.34246612  -14.92706582
H     -4.17018422   -3.51214921  -14.55147080
C     -3.96985039   -4.92372391  -11.75804733
C     -4.85110729   -6.02497482  -11.14658957
C     -7.15968630   -5.64934599  -10.36677755
C     -4.45649790   -7.38582809  -11.78926213
C     -5.18060586   -8.55711108  -11.17139369
C     -6.44216267   -8.94622185  -11.64341609
C     -7.13282134   -9.99232977  -11.02969722
C     -6.57285112  -10.66602916   -9.94281592
C     -5.30920680  -10.29803566   -9.47879467
C     -4.61941873   -9.25365539  -10.09328559
C     -8.60973963   -5.52716845  -10.79259339
C     -3.16679951   -5.11668692   -7.13448763
C     -4.30197564   -5.95692887   -6.50281303
C     -5.94286685   -4.27172540   -5.76606308
C     -4.39479394   -7.35839847   -7.12743852
C     -5.39435049   -8.25582447   -6.43285101
C     -5.02411312   -9.00296583   -5.30734265
C     -5.94366386   -9.83204795   -4.66486347
C     -7.25182284   -9.92592898   -5.14332131
C     -7.63028684   -9.18655095   -6.26483937
C     -6.70850242   -8.35915019   -6.90582951
C     -7.32447723   -3.68729694   -5.98753076
N     -6.26105622   -5.74395758  -11.37510408
N     -2.98220066   -4.46961001  -10.96284338
N     -2.76106342   -4.08971901   -6.35198911
N     -5.56567298   -5.23140378   -6.64893915
O     -4.13958745   -4.53279324  -12.92449491
O     -6.83636242   -5.64519377   -9.16476697
O     -2.68377351   -5.36282616   -8.25042214
O     -5.21174452   -3.90962658   -4.82597914
H     -7.97525284   -4.02161395   -5.17245893
H     -2.12093433   -3.40665026   -6.73946090
H     -7.26604632   -2.59654900   -5.94134680
H     -2.33648500   -3.78752481  -11.34147726
H     -9.19994209   -6.24971562  -10.22230640
H     -8.96942054   -4.52494918  -10.53611448
H     -7.76189995   -3.99778867   -6.93989607
H     -6.11130901   -5.39682670   -7.50054750
H     -4.11049058   -6.03884432   -5.42748060
H     -4.65715539   -7.26559098   -8.18367006
H     -3.39571446   -7.80453931   -7.08321582
H     -7.00216744   -7.79514097   -7.78692243
H     -4.00366298   -8.93842218   -4.93393521
H     -8.64479868   -9.25976825   -6.64753610
H     -5.63853389  -10.40802304   -3.79513276
H     -7.96885489  -10.57425676   -4.64710169
H     -3.34778878   -3.83583958   -5.54956986
H     -8.74669197   -5.70422923  -11.86165656
H     -6.61523140   -5.86131716  -12.32994516
H     -4.70738773   -6.06101163  -10.06590145
H     -4.67842836   -7.32439051  -12.85850459
H     -3.37276873   -7.50719764  -11.67832036
H     -6.87836644   -8.42673691  -12.49210096
H     -3.63573928   -8.96793409   -9.72774363
H     -8.11102435  -10.28306142  -11.40387044
H     -4.86763103  -10.81427277   -8.63167544
H     -7.11579886  -11.47267715   -9.45859391
H     -2.85491449   -4.78476672   -9.99477355
 
